Version 4
SHEET 1 5944 1192
WIRE 3264 -368 2736 -368
WIRE 3456 -368 3264 -368
WIRE 3264 -336 3264 -368
WIRE 2736 -320 2736 -368
WIRE 2736 -224 2736 -240
WIRE 3264 -208 3264 -256
WIRE 3136 -128 2800 -128
WIRE 3792 -128 3136 -128
WIRE 2800 -96 2800 -128
WIRE 3792 -48 3792 -128
WIRE 3136 0 3136 -128
WIRE 3264 0 3264 -144
WIRE 3040 80 3008 80
WIRE 3568 80 3360 80
WIRE 3648 80 3568 80
WIRE 3792 80 3792 16
WIRE 3792 80 3728 80
WIRE 3568 112 3568 80
WIRE 2800 176 2800 -32
WIRE 2896 176 2800 176
WIRE 3008 176 3008 80
WIRE 3008 176 2960 176
WIRE 3040 176 3008 176
WIRE 3792 208 3792 80
WIRE 3456 272 3456 -368
WIRE 3456 272 3360 272
WIRE 3872 272 3792 272
WIRE 2912 368 2880 368
WIRE 3040 368 2992 368
WIRE 3408 368 3360 368
WIRE 3520 368 3488 368
WIRE 3568 368 3568 192
WIRE 3568 368 3520 368
WIRE 3600 368 3568 368
WIRE 3712 368 3600 368
WIRE 3872 368 3872 272
WIRE 3872 368 3792 368
WIRE 4080 368 3872 368
WIRE 4224 368 4080 368
WIRE 4352 368 4304 368
WIRE 4448 368 4416 368
WIRE 3600 432 3600 368
WIRE 3872 432 3872 368
WIRE 4080 432 4080 368
WIRE 2880 464 2880 368
WIRE 3136 512 3136 448
WIRE 3600 544 3600 496
WIRE 3872 544 3872 496
WIRE 3872 544 3600 544
WIRE 4080 544 4080 496
WIRE 4080 544 3872 544
WIRE 4448 544 4448 368
WIRE 4448 544 4080 544
WIRE 3600 592 3600 544
WIRE 2800 640 2800 176
WIRE 2880 640 2880 528
WIRE 2880 640 2800 640
WIRE 3136 640 3136 576
WIRE 3136 640 2880 640
WIRE 3264 640 3264 448
WIRE 3264 640 3136 640
WIRE 3520 640 3520 368
WIRE 3520 640 3264 640
FLAG 3600 592 0
FLAG 2736 -224 0
SYMBOL PowerProducts\\LT8315 3200 224 R0
SYMATTR InstName U2
SYMBOL cap 2784 -96 R0
SYMATTR InstName C7
SYMATTR Value 10µ
SYMBOL cap 2960 160 R90
WINDOW 0 0 32 VBottom 2
WINDOW 3 32 32 VTop 2
SYMATTR InstName C8
SYMATTR Value 10µ
SYMBOL cap 2896 528 R180
WINDOW 0 24 56 Left 2
WINDOW 3 24 8 Left 2
SYMATTR InstName C9
SYMATTR Value 330n
SYMBOL res 3008 352 R90
WINDOW 0 0 56 VBottom 2
WINDOW 3 32 56 VTop 2
SYMATTR InstName R10
SYMATTR Value 22.1k
SYMBOL res 3392 384 R270
WINDOW 0 32 56 VTop 2
WINDOW 3 0 56 VBottom 2
SYMATTR InstName R11
SYMATTR Value .33
SYMBOL res 3584 208 R180
WINDOW 0 36 76 Left 2
WINDOW 3 36 40 Left 2
SYMATTR InstName R12
SYMATTR Value 1.24k
SYMBOL res 3632 96 R270
WINDOW 0 32 56 VTop 2
WINDOW 3 0 56 VBottom 2
SYMATTR InstName R13
SYMATTR Value 10.7k
SYMBOL schottky 3808 16 R180
WINDOW 0 24 64 Left 2
WINDOW 3 24 0 Left 2
SYMATTR InstName D5
SYMATTR Value CMDSH2-3
SYMATTR Description Diode
SYMATTR Type diode
SYMBOL diode 3808 272 R180
WINDOW 0 24 64 Left 2
WINDOW 3 24 0 Left 2
SYMATTR InstName D6
SYMATTR Value RFN1L6S
SYMBOL cap 3120 512 R0
SYMATTR InstName C10
SYMATTR Value .1µ
SYMBOL ind 3696 384 R270
WINDOW 0 32 56 VTop 2
WINDOW 3 5 56 VBottom 2
SYMATTR InstName L4
SYMATTR Value 1500µ
SYMBOL cap 3856 432 R0
SYMATTR InstName C11
SYMATTR Value 10µ
SYMBOL diode 3616 496 R180
WINDOW 0 24 64 Left 2
WINDOW 3 24 0 Left 2
SYMATTR InstName D7
SYMATTR Value RFU02VS6S
SYMBOL zener 4096 496 R180
WINDOW 0 24 64 Left 2
WINDOW 3 24 0 Left 2
SYMATTR InstName D8
SYMATTR Value TDZ13B
SYMATTR Description Diode
SYMATTR Type diode
SYMBOL res 3248 -352 R0
SYMATTR InstName R9
SYMATTR Value 4.99k
SYMBOL cap 3248 -208 R0
SYMATTR InstName C12
SYMATTR Value 10p
SYMBOL voltage 2736 -336 R0
WINDOW 123 0 0 Left 0
WINDOW 39 24 44 Left 2
SYMATTR SpiceLine Rser=1
SYMATTR InstName Vin
SYMATTR Value 300
SYMBOL res 4320 352 R90
WINDOW 0 0 56 VBottom 2
WINDOW 3 32 56 VTop 2
SYMATTR InstName Current_Lim
SYMATTR Value 5000
SYMBOL LED 4352 384 R270
WINDOW 0 32 32 VTop 2
WINDOW 3 0 32 VBottom 2
SYMATTR InstName LED
SYMATTR Value AOT-2015
SYMATTR Description Diode
SYMATTR Type diode
TEXT 2024 976 Left 2 !.tran 2s
